11
UA model for bmmim
C1    1.167349    0.529664   -0.129820
N     2.381263   -0.010599    0.096964
C2    2.285280   -1.388539    0.015980
C2    0.991333   -1.681957   -0.266160
N     0.310179   -0.481869   -0.358373
C4   -1.141726   -0.359083   -0.618143
C5   -1.979089   -0.524954    0.654033
C5   -3.490752   -0.465371    0.383428
C6   -3.999544    0.891171   -0.112919
C3    3.616776    0.731740    0.381116
C7    0.845058    1.981337   -0.156338
