1000
all sphere points for electric field 
H 5.048524 -2.9821773 2.5225954
H 0.9459382 0.8910629 3.0804129
H -1.8870888 3.3127265 -2.8539624
H 0.65969896 -1.2344251 3.3543596
H 2.7520373 -4.021537 3.0654166
H 2.586036 -1.4603041 -3.3122442
H 2.0932286 -3.7129772 -3.3226151
H -4.558864 -2.1617851 2.9864707
H -2.2764823 -4.564124 -0.5334011
H 6.739681 1.2380106 -1.5535837
H -2.006794 0.56301904 4.7188582
H -2.2400403 3.5175853 -1.078199
H -3.4059815 -0.081956945 -3.664827
H -4.3154483 -3.7611449 1.1807673
H 0.024919324 5.600031 -1.6905136
H 4.029742 -2.917217 3.3408895
H 1.5748713 5.2169914 -2.579106
H -1.8117203 -1.6873345 -4.408335
H -3.8624241 -2.98692 -1.634953
H 0.629173 5.211834 2.073115
H -1.2604709 -4.506938 -1.3662536
H 3.3142543 3.8973665 2.425149
H 5.8464646 -2.02809 2.3560221
H -4.6660604 -2.3937747 -0.4379645
H -0.7299019 4.9161534 -0.12849388
H 6.232874 1.2036699 3.4494472
H 5.92362 -2.8358185 -1.58432
H -1.4991024 -2.9782045 -3.141471
H 3.1902623 4.2892694 2.2972157
H -0.20501249 5.2696466 -2.2799618
H -3.7550843 -2.178741 2.4825406
H -3.344158 -4.3148394 0.9965832
H 4.0565276 -0.48052534 -2.6465507
H 2.1798291 2.0907655 3.3194268
H -0.43954635 1.2252219 -3.5349793
H 4.6570053 4.0627136 0.54635847
H 1.7175494 5.8703938 -0.42957154
H 3.1596694 -2.6678348 2.7807045
H 3.867098 -5.109617 0.43773517
H 1.0795486 -3.1466043 2.306547
H -1.3565941 0.80186176 -4.1004343
H 3.7534375 -4.2806187 -2.2889986
H 0.88964194 5.7225537 1.1653292
H -5.962484 -0.80699927 1.4418088
H -4.0241103 -0.23172036 3.5923753
H 2.0619063 4.0062866 2.3453593
H 0.78716576 -4.0127254 -3.617532
H 1.1289525 -3.3160043 -2.8547473
H 1.986083 0.2658655 -3.717327
H 3.5449405 4.8311667 0.809572
H 6.4374895 2.9001708 0.9597578
H -3.015571 2.7901604 -1.5036924
H 0.6385618 0.97295463 2.7514184
H -2.2864766 -4.476764 0.07332817
H -3.7627382 0.52941906 4.0676436
H -4.6964145 -3.075705 1.9158576
H -3.68859 -0.96227694 -2.9149842
H -3.4923613 -3.6686146 -0.9637949
H 0.6715441 -1.1967592 3.6233985
H -3.7369447 -1.8781203 -2.572993
H -2.514309 3.3991604 1.6356168
H 5.482088 0.4506655 -2.12505
H 3.8383472 -4.3612585 2.485352
H 0.38032457 -3.418298 -3.0803182
H 2.924174 -5.068325 0.8612913
H 4.951222 -3.2591786 -2.4194825
H 3.053544 -1.3829634 -3.1611767
H 2.6544466 -3.5682988 3.1013513
H -0.10309711 -1.5502651 4.0004597
H 1.974628 -5.108925 1.6690252
H -2.0213003 4.8933268 0.07769149
H -1.9382663 -0.40466094 4.6613545
H -1.1395048 -0.39429814 -4.628847
H 7.7344904 0.5189706 0.80469877
H 2.5375814 -2.6006186 3.4039166
H 1.4807155 1.4427965 -4.0678744
H -1.8664553 -4.759004 0.69938004
H 1.0180478 -5.713244 0.84467417
H 4.8811836 -0.106817186 -3.2910893
H 0.6817024 0.16838282 3.3903852
H 4.0489717 3.8080466 -1.7734218
H 7.4463825 0.52159 1.6897433
H 0.08212548 -4.3490844 -3.3276155
H -1.8107424 -3.6856043 0.0701008
H 5.5755777 -1.4239372 -1.1422637
H -2.155488 -3.9900393 -1.4316571
H -3.5542898 -2.5851452 3.8015847
H 1.1551617 1.0588735 3.2059588
H -0.17082813 -2.4305043 -3.6661892
H -0.8050037 -0.45842096 4.5113397
H 4.1119585 -2.7954986 3.2804742
H -4.926089 2.0396397 1.7178136
H -5.7028255 0.84347963 2.0353909
H 5.87484 2.7792108 3.180773
H 5.188065 -4.175817 -0.5738407
H 5.636769 3.377291 2.8875911
H -2.7312624 -3.465465 3.6927967
H -0.35625786 -1.4864371 -3.57029
H -4.433701 -3.4453053 1.9878395
H 2.8868728 4.444191 -2.4186273
H 0.2101373 5.7162466 -1.5963286
H -4.927556 -1.7766547 -1.1247773
H -4.573615 2.0261996 -1.3693287
H 0.104307085 0.21059585 -4.151774
H 6.5990715 -0.46886936 -1.9711325
H 1.4112722 -0.4531093 3.2604222
H 2.5471325 -3.5424569 -3.4308095
H -1.5756598 1.819803 -4.247021
H -2.6074142 3.0158188 -0.39579153
H 2.6558352 2.8439097 3.7239242
H -0.5915094 2.6081452 -3.3298361
H 7.1424465 1.39043 -1.4888109
H 2.0845933 -0.65173715 -3.9815006
H 1.300102 4.9347506 -3.1680343
H 0.9589251 -1.7889633 -3.4529743
H 2.2593694 2.5759501 -2.9644613
H -1.6532173 5.1803265 0.214109
H -1.2244709 -3.4087744 -3.314796
H 0.8608245 -3.7041652 3.2355177
H 0.49617177 -5.7737246 -1.712594
H 0.5093472 -1.723577 3.6399243
H -1.2636946 2.5590029 -3.858409
H 0.77160954 0.65569067 3.1716583
H 4.4556723 0.50553066 3.868136
H -3.3806033 -2.8160145 -2.9765344
H -4.8612194 -0.26633465 -2.2749498
H 6.165957 -2.0764587 1.6389251
H -4.14005 -3.1164546 -0.5605365
H -0.25626957 2.6193392 3.2764103
H 1.5535572 0.6956959 -3.8107417
H -2.6061237 -2.9912791 -2.5081058
H 0.61142355 1.0615828 2.7691178
H 0.7553658 -3.4777043 -2.761074
H 5.665881 0.44505063 -2.5451603
H -2.5956726 1.073739 4.53823
H -3.8433406 0.37500307 -3.3281982
H 6.44637 1.4797499 3.1924293
H 4.5005627 1.43915 4.2868752
H -4.691695 2.5167599 0.16985175
H -4.9887958 -3.1455593 1.3679175
H 4.694601 -1.3087653 -1.8857415
H 0.7947907 -0.98060995 2.7708411
H 2.8983626 3.5665898 3.2071018
H 0.69563603 3.7334335 3.2591996
H 4.6503224 4.0291305 2.9421737
H 3.7412019 -1.9902347 -2.9074588
H 3.1470056 5.137913 1.8424559
H -4.7244782 -0.24338093 2.871389
H -4.036492 -3.0514946 -1.608135
H 3.3061013 -0.45160416 -2.7723713
H 3.7891388 2.0601707 4.5780315
H -4.2835116 2.6914797 0.7617119
H 1.1166749 5.2696466 -0.1278992
H -0.3557536 -4.637965 2.1658385
H -4.315019 0.9550407 3.6359966
H 0.51936245 -6.0022044 -0.78669775
H -0.7268779 -5.2063656 -1.4002686
H 3.6600165 -1.72765 3.62329
H 5.469423 -4.2604585 -0.8670039
H 0.014423579 -0.9607235 -3.7265494
H 5.587142 2.7029705 2.175957
H 1.0884538 -4.893404 -2.889397
H 3.7130823 -1.7456696 3.3241925
H 2.340129 4.1873565 -1.4267195
H -5.4749527 1.0719596 2.1858883
H 1.4068652 -2.4406042 2.7727022
H -0.035893917 0.68166554 3.0207715
H 7.0586596 1.8151027 0.5098971
H -3.8751605 2.5839596 1.6547105
H -1.542913 1.9163667 3.5006418
H -0.4242505 -0.21298513 3.893538
H 3.0911741 -4.638657 2.310059
H 2.9253569 -5.0852575 1.5720873
H -4.8302956 -2.370105 -0.13237417
H -4.275684 0.07470533 -3.1819952
H -0.8805219 5.1890063 1.7698162
H 2.8863537 3.194271 -3.4660888
H -6.2197633 0.66875964 0.7849395
H 0.11249572 -2.6923041 -3.5269687
H -1.3467695 -2.6860948 -3.9531212
H -0.026241243 5.4268737 -0.34850892
H -5.4937105 0.31931964 -1.8262467
H 0.4262297 0.41912073 3.7674713
H 1.3986053 0.68763644 3.9238977
H 1.5067766 -5.353217 -0.44755992
H 6.230204 1.1372106 3.143032
H -5.4754534 1.6028397 -0.8089807
H -0.39810455 -4.6380444 2.1135724
H 1.4790297 -4.232657 2.7933965
H 1.8107713 -0.20921007 -3.127986
H -0.533351 -0.22994094 4.462511
H 3.154453 3.0583026 -3.2839968
H 0.46371892 5.168847 1.9485667
H 5.888636 1.1842506 -2.238812
H 7.0364666 -0.92377007 1.7981882
H -0.8376589 -1.4078794 4.4257584
H -1.7287257 4.578591 -2.0793226
H 3.218508 -0.7171235 3.1399763
H 3.7195787 0.4968655 3.6741662
H -3.6225753 -3.0562391 -2.062961
H 2.5960402 -1.0348587 3.30304
H 0.6106673 1.2107667 3.63363
H 1.838845 -2.8169246 -3.5257306
H 1.6676614 2.8556764 3.1617818
H -1.2524831 -5.5318046 -0.4694044
H 1.0978378 -2.2588053 3.7287652
H -5.0622487 -1.7651591 2.980547
H 3.0467486 -2.9408855 2.9754186
H 0.23520842 -2.3643653 3.6441069
H 2.6478112 1.6838336 -2.8296912
H -0.92335427 3.1203508 -4.0563984
H -5.949377 -1.7773204 1.4376396
H -5.3033085 -2.9197202 0.24086061
H 0.9558099 -2.2030833 2.870892
H 2.9891558 -1.6156691 2.8476696
H -2.595947 -4.063119 2.496269
H -2.2181287 3.802203 -0.60588634
H 2.3667364 4.815354 -2.153954
H -2.229798 1.9071631 -4.085144
H 3.6799707 4.70339 -0.43321562
H 3.2809415 -1.033377 -3.9151335
H 2.3858821 -4.6233387 2.1620705
H 0.6336358 -0.027479269 3.6990476
H 1.0101764 1.2277453 -3.668716
H -4.279166 -0.45348033 -2.7560236
H 7.6312866 -0.73094934 -0.13426661
H -4.764916 0.0034796447 -2.491179
H 2.9462135 -0.59085 -3.3915355
H -0.8979361 -3.572985 3.5849648
H -2.3301265 -3.4849253 -1.8108333
H -1.8164597 2.048283 -4.1180863
H -1.5273167 -3.8503253 2.0642014
H -0.3550973 4.3960466 3.0093956
H 5.3746233 3.4935098 -1.9981716
H -0.49236462 4.5129533 -1.4628258
H -0.0035292283 5.451087 1.2926793
H 2.281046 -4.9270043 -2.1664677
H 1.8584588 -3.129835 2.3054142
H 4.044356 4.108486 1.098022
H -3.9256036 0.78452075 3.971743
H -2.2673979 -4.661625 2.1405795
H 1.917538 -5.0527773 -1.717263
H -1.8364881 0.82512075 4.4742446
H -4.4501987 1.2466795 2.947688
H -0.70585406 1.4537019 -3.3692465
H 2.1514163 2.4064627 -3.1595602
H -1.2115266 0.993243 -4.460244
H 6.771122 1.0185707 1.9513298
H 2.9687514 0.7850765 -3.7479088
H 2.5858376 -5.276444 -0.23752043
H 3.6904228 -2.6543787 3.4088345
H -0.21983862 -2.8739781 -3.9931118
H 1.3590288 -2.2828345 3.042663
H 0.82607937 0.47156677 3.2374349
H -2.0867326 4.242591 -0.5006707
H -0.6260898 -3.3445048 3.647921
H 2.9497564 0.91899604 -2.7772098
H 4.1601686 -1.2887094 3.6355348
H -1.3938677 2.011551 -3.8541098
H 0.028018653 -5.921564 0.20475239
H -5.892123 0.40667963 -1.243238
H 3.8345742 -3.5417652 -2.5104263
H 3.315546 3.1689706 4.119524
H -4.604946 -2.2279992 -1.9456451
H -4.5600586 0.18012303 -1.8957543
H 2.587009 4.5264106 1.8303512
H 1.3378996 0.72054297 3.3376312
H -1.0863656 -5.1008053 -1.0681729
H 4.955441 -4.386937 0.64618474
H 5.8129005 3.5856106 0.4185176
H -2.9181933 1.2924218 -3.112728
H 2.7224874 0.8202655 3.8448005
H 6.610298 2.5341427 -2.0270047
H 3.320128 1.4362656 -3.3363676
H 1.1738923 -2.3094983 -3.1733928
H 0.82657725 5.223711 0.5281431
H -4.068025 -2.652218 0.038183928
H -4.9111853 0.86541903 2.399558
H 0.548532 -0.75015926 3.7962973
H -1.4172275 0.438855 3.8473916
H -2.4803135 3.6770067 2.300994
H -4.5632925 1.4636431 -0.9750381
H 0.6493619 4.282911 -3.8992224
H 4.647784 -4.492497 1.1517844
H -3.5087018 2.9004655 -1.1266472
H 0.44612348 3.3672361 2.6904497
H 2.4709103 -5.0033655 1.5307857
H 5.3102627 -0.90753007 -2.9103594
H -3.1459217 -1.7755411 3.6381137
H 7.779832 0.14937063 0.6363052
H -2.8906865 3.103179 -0.072490424
H 6.9269934 0.25689062 2.7733302
H 2.5887892 3.2905097 3.3722281
H 0.8723417 1.8518507 3.356551
H 0.66190034 -1.6976347 3.1110384
H -2.0458374 -4.404159 1.7622671
H 5.8637567 0.20491001 3.724021
H -0.6910287 -4.1913652 2.4397995
H 0.1387985 -4.273257 1.8972516
H 3.5794961 -4.052139 -2.5139017
H 5.8038735 -2.153937 1.8865656
H 2.019465 0.15011102 -3.2877865
H -0.75361085 4.6003137 -0.9335235
H 1.5633045 -5.3931246 -1.8600819
H -0.49442178 1.873563 -4.1254067
H 4.1152325 4.7521095 0.5789655
H 1.9926944 -2.4473243 -3.4501977
H 6.744896 3.1362298 1.3020486
H -0.9158623 2.7001233 -3.7215781
H -3.6835456 -0.9709203 3.6330671
H -5.773814 0.9794008 0.6212122
H 4.408834 -4.833537 0.40143415
H 2.6570747 3.0686655 -2.1852555
H 3.6586504 3.3436732 2.840293
H -3.6212416 1.1274991 4.049569
H 1.0708783 4.0272865 3.3594356
H -3.4096808 -3.317498 -2.9777465
H 0.7439164 -5.034524 -2.8150377
H -2.9196553 3.2936006 1.7435569
H -3.4311962 1.1384252 -3.629568
H -1.2096765 -3.431865 3.7920785
H -3.8022833 -2.276719 3.8133378
H 3.2025406 -5.3450966 -0.19642112
H -1.8418303 3.5825453 -1.2606663
H 1.9814513 -2.9513242 2.5442276
H 3.6063192 1.91823 -3.4907377
H -1.0210176 0.87885904 4.602968
H -4.899499 -1.9519192 -1.796677
H -0.3934987 0.30780303 -4.340724
H -1.6878412 -4.3912945 -0.720385
H -3.1402981 -0.51396036 3.734913
H 1.5870435 -1.6207645 -3.4537702
H 2.5524588 -5.3423786 0.39671895
H 1.2469476 3.2227135 3.5253153
H 2.5441213 -1.650497 -4.039004
H 1.8215858 -2.730804 -3.1090615
H 6.046029 0.9087306 3.346187
H 3.6433413 1.3335898 4.4055767
H 4.258452 3.6595135 2.0834792
H 0.20609364 -3.4493744 -2.8932023
H -1.8629597 -3.8685381 0.55630445
H 1.7838197 3.4101665 3.537835
H 0.08291386 5.967966 -0.2675214
H 7.600857 0.8348106 -0.16795173
H -0.35204357 2.065311 -4.377791
H 6.071027 -1.7068586 1.782397
H -1.4279431 3.6475053 -1.1594522
H 1.0073323 3.6131666 -3.8464024
H 5.4075403 -1.24045 3.4501705
H -4.216064 2.431179 2.2070975
H 5.293517 -0.7922572 -2.5800931
H -6.0286427 -0.9507603 1.8696737
H -0.8329371 0.16668305 -4.4197965
H 0.03382854 -1.5686053 -4.2360306
H -3.6774487 -0.64293814 -3.7940147
H 2.0965178 3.1797266 2.860142
H 1.5250736 -3.1543043 -2.8688293
H 6.4033594 1.6704106 2.9464107
H 7.192773 -0.7847094 -1.186523
H -0.30682132 2.390859 3.5611045
H 2.3419495 1.6672657 3.5652356
H 1.6931481 0.41780666 2.7372983
H -5.047497 0.5619054 -1.2961731
H -3.1572385 3.0990865 -0.47655147
H 5.615019 -1.7187895 -2.0810657
H 4.9092484 -0.62333 3.9904358
H 7.0869546 -0.77760994 -1.0555072
H 2.3942103 -3.4930449 3.064313
H 7.2455745 1.4147899 2.0526888
H 5.4566855 1.4956906 4.0293927
H -1.56489 -4.1264052 1.7313433
H 4.0432224 4.029114 2.1213665
H -0.34882402 -3.6117744 1.6795526
H -0.032745898 5.460473 0.6360575
H -1.2988784 1.043871 -3.623859
H 1.5471543 -0.41310415 -4.012
H 4.8197694 -4.557457 0.26443538
H -5.3306527 -1.0045204 2.7887309
H 0.70152986 2.7171512 -4.5010576
H -1.3644929 2.7496467 -2.5578082
H 2.963241 -5.396138 0.32366955
H 3.835681 -4.5811253 -0.23442549
H 7.3103466 -0.60709 -0.5947014
H -0.6164744 -5.0950046 1.5801239
H -1.8969264 1.1610991 4.6214004
H 4.5225673 3.4913664 0.5396475
H 6.733037 3.0112627 0.21713696
H -4.0943003 0.670539 3.7675018
H -1.1686398 4.3180733 -0.2905246
H 2.863529 -0.9602971 4.0001416
H 2.7940345 -5.410057 -0.31753927
H 1.2137616 0.86509585 3.111746
H -3.2284591 0.86234534 -3.890894
H 3.6318638 -1.6866987 3.4544969
H -1.1535097 -3.3391044 -2.5222402
H 1.1455635 0.3304468 3.0133507
H -2.0349007 -4.836345 1.3024961
H 5.5481725 -2.64521 1.5425012
H 2.2883835 -0.20513706 -3.8770306
H 5.7980824 -3.3881772 0.43411496
H 7.318599 1.11435 -1.2045318
H 4.631164 -4.321977 1.5608006
H 1.852206 5.8055663 -1.0033824
H 0.37871557 0.04727468 -3.90771
H -6.017065 -0.35268036 1.9825876
H 0.8070889 0.7243053 2.75809
H 5.058322 2.71399 3.6207294
H 3.2673743 -1.853497 3.917921
H -1.5645683 -0.07145466 -4.6538835
H 6.215182 -2.2631094 -1.1682723
H 5.8674026 0.5450228 -3.0236628
H -4.017377 -2.2638547 -2.789551
H -3.2947855 2.9579666 -0.06260574
H 4.432538 -0.75550926 3.7701523
H 2.0125537 2.9635665 3.6167314
H 0.45092922 5.505951 -0.07560417
H 4.126473 -5.053418 -0.99332154
H -0.22636615 0.6774031 -4.301239
H -1.601029 2.2652464 3.1133556
H 1.142671 -1.7154572 -3.8772867
H -1.8196851 3.701403 -2.333115
H 6.6039524 1.0521708 0.0878562
H -0.7639998 2.1020432 -4.081809
H 7.31645 1.6908699 1.7270546
H -3.8256698 2.679819 0.22840552
H 0.57384634 0.7817911 -4.1466293
H 2.2496858 5.554553 -1.1946398
H 1.6584761 -3.5145388 2.7736437
H 5.2494917 -0.07006928 3.8062592
H 4.25404 4.5734334 1.0065092
H -2.114872 -3.4737346 -3.0570066
H -0.7654309 1.2067606 4.112381
H 0.8699889 4.3315134 3.0108202
H 6.453456 -2.4124587 -0.37708336
H 6.6379237 0.5987828 -2.1896632
H 2.8323889 2.0534334 -2.8501022
H 1.7944508 -3.436897 -3.4694295
H -3.095975 1.0687206 -2.937094
H -0.62102675 -3.4412546 1.9733261
H 3.3105586 -1.0408973 -2.7103448
H -4.3049593 -0.27683702 -2.3834243
H 0.15032604 -0.025805235 3.316628
H -0.9278348 -3.1774044 -2.846036
H 5.1243534 -1.8815787 2.8653789
H 1.1088135 -2.8064349 2.4314198
H -4.2297454 -3.707385 0.3137893
H 1.8346949 0.9600699 -3.2551699
H 2.6110907 -1.8852853 -4.0037355
H -2.294726 3.382431 -2.518392
H 5.0481076 -4.751019 0.77235997
H 1.1321504 -5.1826973 -0.889849
H -2.7650821 -2.894138 -3.8988929
H -1.3813589 -4.4934983 -1.7005485
H -0.34098858 2.2002866 3.7494788
H 1.9027203 -5.0278044 1.4666271
H -4.077714 2.0478654 0.8206917
H 3.5828562 -4.2001767 -2.6285772
H 1.9010574 -4.0130844 -3.1846275
H 5.5057836 -1.18361 -2.6445246
H 3.1933653 1.0250299 -3.6370845
H 1.4914418 -0.22462934 3.5224051
H 4.523344 3.253183 -3.174766
H -1.4878474 -4.022519 2.5994782
H 0.81666756 -0.48103452 -3.3863358
H -5.973753 -2.0931604 0.5325301
H -2.1071253 -2.780025 4.216564
H 0.3903675 0.5397819 -3.644278
H -3.7003627 -3.3275745 -1.7360356
H -1.7582536 2.9693565 -1.5588094
H 3.881463 -4.5090985 -2.0190496
H 4.8343334 -1.2013494 3.6548665
H -1.664129 -3.7241042 -1.1094726
H -4.4919496 -3.216825 2.2577906
H -1.5055494 -4.824725 -0.9978202
H 2.146638 0.89063644 -4.0454926
H -4.7719812 1.093899 2.6376152
H 0.63659877 0.8895656 -3.2105303
H 5.570977 3.9587827 -1.7941258
H -4.909926 -2.4426003 -1.5683553
H 5.1308684 -4.7174187 -0.35227028
H 3.0527556 -3.745457 3.2253046
H 6.2699213 -0.9132172 -0.9362112
H -1.1568048 -3.5258179 -3.7288883
H 4.9595747 -0.60326934 3.8066313
H -4.269876 2.202843 -1.2904177
H 4.0074005 0.20902276 -3.6005378
H 1.7005545 -4.5695786 1.8233516
H -4.5626507 -1.8848405 3.002794
H -0.33853614 -3.4720583 -3.5455885
H -2.2009683 -0.6331409 4.5793433
H -4.2402267 2.1673195 -1.4214208
H 0.67500246 -0.9045346 -3.234561
H -3.1691074 2.7362065 -0.28202325
H 0.08097187 -4.6548967 0.998173
H 2.3937879 5.648633 1.4076786
H 0.6906599 -0.32703453 3.5495975
H 7.0228767 0.47782278 0.26063636
H -5.002415 -3.1482003 0.09736013
H 1.9757447 0.07094294 -3.768589
H -1.1491659 -4.3558044 1.939986
H -3.4687507 -3.740858 -1.9519272
H -6.293459 -0.44004035 1.3116622
H 5.728721 -2.8611894 -0.62608933
H 3.9767406 4.59783 -0.7815473
H 2.8169057 2.824671 -3.6368685
H 6.672229 1.4217708 0.24530694
H -0.8685765 4.8742714 0.47120148
H -0.7530861 -0.43139693 -4.2695036
H 6.032085 -2.7872694 1.4986938
H 1.7517148 -1.2664347 -3.4844792
H 0.35569876 -0.1076971 3.3358493
H 3.2466345 4.8068066 -1.7388918
H -1.1599374 1.9609231 -4.1952457
H 0.27202043 -2.268804 -3.7880774
H 5.8386 1.9526507 3.6303687
H -4.041005 1.201563 -3.0004075
H 4.1772857 4.1490865 -0.82208014
H 5.675355 2.5207028 2.139892
H 4.2294736 4.5734506 1.787067
H 1.953105 -3.9477654 -3.5245967
H 5.2531486 -3.9446187 -1.664043
H -2.7135963 2.8179507 -0.84299797
H 4.9356685 4.314943 0.8027029
H 2.2503705 -4.573697 2.5299234
H 2.0658169 -3.7691255 3.0269659
H -3.5826135 -2.5366802 2.932093
H -0.88618314 -2.2357051 4.2593007
H 2.197695 -1.5124571 4.062088
H 2.1063259 -4.662325 2.2415967
H -0.7688346 -4.3859777 -2.0049927
H -1.7483935 -0.34415928 4.6901507
H 5.4209905 0.98442996 -3.2312565
H 0.94464517 0.83039343 3.0310032
H 2.3672905 -1.1985041 -3.5399816
H -2.2069752 1.3461818 -3.469377
H -5.7149353 -2.1469202 1.5081143
H 0.609 4.1978064 3.2568228
H 4.7131133 0.99254996 4.2880807
H 2.0614755 -2.6812587 -2.9649634
H -2.6356933 -1.6712251 4.3867755
H 5.911051 -0.28153718 -2.5387568
H 2.3618145 3.8311028 -2.2038224
H 1.3320711 -5.669205 -1.0397828
H -4.449668 1.7121391 -0.05143985
H 5.994624 -3.4137387 1.3125
H 2.126835 -1.0987635 3.4639547
H 2.2522721 5.7000065 -0.8849388
H -2.8096514 -4.0549994 -1.1476201
H -0.9094227 -2.5771592 3.9577765
H -2.8688574 -0.72050095 4.385772
H 2.7116709 -2.1650844 -2.9242299
H 6.8546257 1.9100105 1.8697836
H -4.91449 -0.7663992 3.4486217
H 6.363887 -2.4176695 1.8335289
H 7.3514843 0.55257064 -1.0099782
H -3.316975 3.0453267 0.6414414
H -6.2888584 -1.3539603 0.21980602
H 0.31371212 -3.3545244 2.830091
H 6.48575 -1.6708101 -1.1674433
H 3.523297 3.2480311 -2.5342715
H -3.6805487 2.908299 0.5084571
H 3.6667988 4.9228735 -1.0742675
H 3.364003 -4.134044 -1.376579
H 2.9835978 -4.9055786 1.9042069
H 4.3938527 1.4732106 3.567831
H 3.0200357 -1.1759787 3.390535
H 3.9009566 3.98071 -2.0214455
H -5.173282 -2.4291604 2.05009
H 4.1033006 3.7777095 3.0252373
H 6.792039 1.6166507 1.8477339
H 7.432267 2.07251 0.5690848
H -4.567425 0.6268653 -2.5836844
H -3.9583218 2.8307605 -0.58989596
H 2.252176 -4.0601244 2.0418468
H 1.4163485 0.18932655 2.7459514
H 0.9899334 1.5808365 3.7924955
H -1.8278289 -3.3032143 -3.3480918
H 5.0419426 -2.965937 -2.5303605
H 2.796992 -1.4386854 -3.9124665
H -2.8759956 -0.95877814 -4.3838387
H -3.366717 2.4132655 -2.5871177
H 0.01469098 -5.0845647 1.723958
H 5.3748393 2.15371 -2.9736514
H 1.6504377 0.11223465 -3.8638747
H 1.4281093 -3.509977 3.362019
H 1.7188877 4.8555264 2.5816612
H -0.89968824 1.0367965 -3.5914662
H 0.9700971 1.4284736 3.3333995
H -5.9602904 -1.3591592 0.7750944
H 6.1669517 2.6080627 1.6693462
H -3.755197 -3.5123782 -1.8283122
H 5.2258725 0.82202995 4.112437
H 0.71566224 -5.431004 1.4329892
H -3.6732948 2.8863597 0.2679612
H 0.04497677 0.82509905 4.1608005
H 1.3586253 1.7395899 3.6181846
H 4.950176 -1.9440347 2.2188811
H 3.58634 4.8717666 -0.79308814
H -4.2240305 2.1777854 -1.3808113
H 1.1048796 5.675646 -1.7849538
H -1.4597654 4.4173107 0.48199856
H 0.96188354 -0.6934769 -3.22228
H -4.6334367 -2.0877383 -1.5235932
H 4.7935104 3.9888108 -0.2753885
H 6.86539 2.3132105 0.5051024
H 2.2871792 -0.26819333 2.9107382
H -0.514394 5.3849907 -0.31070665
H 1.1023972 -0.5152582 -3.504169
H -0.34925818 -2.077941 3.2978907
H 4.124958 4.3196063 -0.36008418
H 3.5651813 -3.2524586 3.2570696
H 1.9215963 -1.1222186 3.1337144
H 5.3371477 -4.4889383 -0.6009946
H 3.7694173 -1.3049346 -3.2470422
H 1.7976171 1.7550868 3.2505486
H 2.660337 3.1236362 -2.8607168
H -3.3930535 0.885723 -3.751991
H 0.9145125 -4.664924 -3.1142998
H -1.3918751 2.5877166 -2.5276542
H 4.771451 -2.708139 3.0182872
H -3.85594 -3.3925345 -0.7903985
H 0.11034712 -4.050105 2.076062
H 4.6699343 4.0456696 -1.6939769
H 4.41951 -2.9246452 -2.0645978
H 4.8641405 -2.5386295 2.6967278
H -1.8626529 2.7170804 3.1106305
H 6.1357355 -1.2850971 -1.2841462
H -5.504347 1.3743596 -1.0848368
H -1.5394475 5.245286 -0.6365167
H 5.498416 3.6729705 -0.014861077
H 2.6201868 -0.25773454 -3.732145
H 3.0776186 0.85858285 -3.2787611
H 7.338977 1.9669499 1.3958668
H 0.47370538 -1.4629052 3.5601947
H 1.6280531 2.1676908 3.982718
H -0.50278395 4.2979136 2.1715858
H 0.85944486 5.0774336 -1.8505208
H 0.40604398 1.282059 3.7467515
H 7.1613364 1.6202228 -1.0885514
H 3.7285316 5.1715136 0.7836986
H 0.37758648 -0.6427345 -3.1274273
H 4.829673 -1.5848453 -1.5790632
H 3.9616637 2.81143 -3.0757074
H -4.82531 0.05051963 3.2014542
H 1.7552793 -5.5385246 0.7295842
H -1.1157454 0.5733819 -4.2353177
H -6.2652397 -1.0381204 1.194972
H 6.7092876 -1.3088694 2.629497
H -0.9124484 3.718431 -3.8278902
H 3.8784451 -3.8178453 -2.182539
H 4.4045105 4.368703 0.9989674
H -2.4243312 3.7856312 -0.9305262
H -3.743049 -3.1429052 -1.0948886
H 0.67279506 -0.3436035 -4.061437
H 2.9069319 -0.8653494 3.4146423
H 1.9334458 1.6156465 -4.022189
H -1.2915466 1.3152065 -3.5416772
H 2.3424485 4.1030507 2.8268816
H -0.21581022 5.3637266 1.5816886
H -0.3098996 -5.464604 1.2144296
H 6.971877 0.49722996 -1.8663447
H 3.977419 4.6406507 1.0022177
H 5.5896764 2.4744906 2.5034049
H -1.9093591 0.29114187 -4.360112
H 2.1487303 -1.2524042 2.9172015
H 2.0492313 -3.6556587 2.8823254
H -1.9251667 -1.9704208 3.8586946
H 0.5449587 1.2052656 3.2612505
H 6.814255 2.8163826 -1.2174268
H -6.1518764 0.49403962 -0.59165716
H -4.080323 -3.989625 0.99053675
H -3.4635506 -1.1389203 -2.8801208
H 0.32993084 -5.0764456 -2.439916
H 3.479134 0.26593065 4.4987082
H 1.6690459 -1.544937 -4.0050473
H -0.5789737 -2.5922046 -3.4786499
H 0.5239696 -5.523045 -1.5615304
H -0.9910232 2.6521206 2.9914367
H -0.4222186 2.2214336 2.8684208
H -4.4459066 -3.1683602 1.7236826
H -2.8246512 -3.7530003 0.6920974
H 0.5694715 4.880991 -3.352554
H -4.5205727 -2.9398801 2.0525022
H -1.52246 -4.0258946 -2.3477695
H 6.7478724 1.5664628 -2.1812308
H 6.3815794 2.20243 2.960834
H 0.62737095 -1.0008972 3.6889472
H 1.0853833 5.8502336 -0.2728692
H 1.0734285 -2.081018 -3.428408
H -3.010449 2.0593605 3.6218286
H 4.4041815 1.5494508 4.5371146
H 5.693286 0.7564907 3.780467
H 1.3288332 3.0480103 3.2309923
H -3.711774 2.995659 0.96430093
H 2.4790988 3.8476734 -2.7485754
H -5.7893267 0.17819963 -1.4990336
H 1.1571229 1.6677266 3.5759017
H 0.46732995 3.4751267 3.6216955
H 0.6148985 0.61498284 3.110858
H 3.8841362 4.5956864 -0.6004969
H -0.43847477 -0.96884346 3.2958744
H -2.6754804 3.2477665 -1.7708888
H 7.633919 1.17931 0.16647987
H 1.4323157 3.4176106 2.9590492
H 5.626691 1.6479304 3.218607
H 6.6768384 -2.3303094 1.4186503
H 5.0135956 3.71275 2.756527
H 2.6311903 4.29739 -1.2819054
H 5.4235163 -1.8670347 -1.3500743
H 4.0978117 0.85003644 -2.9020736
H -0.27949035 1.0362407 3.9837952
H -0.8897639 -5.410844 0.894134
H 1.553992 3.8567665 3.3866618
H -4.2241793 -2.773178 -2.2265892
H 6.3404803 3.6093426 0.04290972
H 0.78396493 1.7980736 3.401688
H 1.2843461 3.748876 2.3443775
H 3.4042275 2.5641537 -2.6165519
H 2.842193 0.071995854 -3.2039764
H 6.126649 -2.1354296 2.497756
H 4.5285287 -4.151457 1.9697295
H 2.381568 2.2385564 3.346128
H -1.9768004 -4.3726654 -0.5882151
H 1.3958168 -1.5791787 2.9723039
H 4.2988625 3.1152105 4.0410757
H 7.564833 1.6259099 0.37283882
H 7.542612 0.20313062 1.7809272
H 4.082732 4.7115097 1.017537
H 5.4530954 0.5280107 3.9159548
H 5.9901724 1.5830506 3.539547
H 1.3122107 0.5194466 3.6212077
H -2.0016668 2.4357665 2.7506843
H 0.5356863 1.510539 3.5055547
H 4.903279 4.5770226 -0.22694513
H 1.4333235 -1.5219042 -3.9034703
H 3.7088058 -0.5510187 -2.8095853
H 4.9062233 2.6044905 4.078726
H 0.73247004 -0.42482093 3.5131636
H 5.896504 2.9986503 0.14678702
H 1.7010356 0.5481535 2.9275367
H -2.817683 1.812939 4.1821284
H -4.1339045 -0.5555781 -3.242433
H -2.790485 -3.9021382 -0.01971677
H 4.4830637 -2.2473297 -2.2274344
H -2.7353935 3.3470654 -1.0477443
H 6.81166 1.4530505 2.414556
H -1.6700704 3.2536469 3.2489939
H 2.5725641 2.7993536 3.477708
H 5.6958957 -3.4531374 -0.7877884
H -0.50476724 1.2096466 -3.8970816
H 2.3254058 -0.7897771 4.019284
H -3.2442644 2.3621995 -1.503434
H -5.159137 -1.6846651 0.6224162
H -4.7242146 1.1996396 -2.0576737
H -3.5281243 -3.6790802 1.0343009
H 1.0201218 -1.3672793 3.2196283
H 0.9806812 1.91011 3.2545238
H 3.2936802 2.19431 -3.382296
H -3.8830116 -3.4250183 -1.3123081
H -0.8637216 -0.6227781 -4.6391945
H 5.166294 3.2472906 1.0208502
H -0.88609266 4.6876736 -0.37229958
H -5.139718 -2.1224391 -1.3502231
H -3.6417823 2.8546832 -2.0385094
H 0.25504604 -0.9757168 -3.6364517
H -2.2551105 -4.271738 -0.45346752
H -4.1646953 0.37165478 2.691267
H -1.2012712 -4.722105 0.48808283
H 0.44412583 -4.825417 1.152175
H -0.41080505 2.162379 3.82046
H 6.37367 1.7720699 -2.3893538
H 1.6503816 0.51346993 -3.1607845
H -1.1494013 1.783071 -3.9838724
H 1.0409393 2.4415565 -3.70528
H -5.1485577 -2.6576402 1.7665458
H -4.049458 -2.6292543 1.100025
H 4.5970054 -3.3062186 2.9089088
H -0.087659955 3.402591 -4.2754083
H 4.9610524 -0.91389865 2.7452352
H 2.113029 5.2909107 -0.692361
H 0.025963783 -1.919865 3.885119
H -6.044345 -0.46595928 0.3636235
H -3.9210753 -1.8459451 3.7426395
H 2.215527 -4.435657 -2.68429
H 2.5516975 -1.3223095 2.9997733
H 4.8308506 -0.70489734 -2.9034102
H -3.4211593 2.4472466 0.5403662
H 1.148727 -2.8847373 -3.5961902
H -1.6326839 0.21037489 4.0192566
H -3.1616046 -1.4192368 -3.0697293
H -0.5989721 2.988939 3.0090256
H 1.6452506 1.1221853 -3.162467
H 0.6281136 -3.8383646 -3.5955927
H 6.0260034 3.4982505 0.92725885
H -2.8199136 -3.6929746 1.0013447
H -1.6929076 -4.8430653 1.1268218
H 2.2900198 0.5197111 -3.4316516
H 0.78034616 -5.9484444 -1.072804
H -3.107552 -0.5830146 -4.177584
H 0.93714464 -5.207057 0.36068982
H -0.19939102 0.47239584 -4.065278
H 3.5686424 2.50287 4.0427084
H -6.319652 -0.07044036 1.1415735
H -4.5979295 2.1892805 2.2082684
H 5.477705 -2.1503787 -2.277665
H 0.008367524 0.20855647 -4.0076456
H 5.623 3.1397705 0.38796362
H 2.5933506 1.487391 -3.7313566
H 3.5960197 3.9955306 3.3561068
H 4.1924925 0.33516553 3.479252
H -3.5714629 3.0012803 -0.6702955
H 5.7267694 -2.7101703 0.7877269
H 6.7642255 2.0736108 1.2969143
H -1.3584262 -4.9952455 -0.6282055
H -3.1719277 -0.1928252 3.928697
H 3.1108558 4.6809535 2.4348466
H 1.3549984 -2.6729252 -4.2126994
H 3.5380177 2.9337535 -2.508212
H 1.2400073 0.95749605 -3.8105252
H -4.3000855 0.28108075 -2.6076202
H -1.6477976 -4.238138 -0.06293967
H 6.502304 1.2806506 -0.17023578
H 0.15348624 -1.5835042 -4.0615134
H -1.7144645 2.9931605 2.6866105
H 1.2006702 0.89918286 -3.1639361
H -0.62167203 1.503963 -4.2865353
H -2.1144967 -4.510364 -1.4909294
H -1.9360442 3.788763 -2.008963
H -4.710208 -0.54241467 -2.5743213
H 6.703841 -1.2954295 -1.5522597
H 3.2775924 3.4847937 3.0529978
H 1.0801195 1.8905909 -4.46061
H 4.4340224 0.35014278 -3.6026235
H 7.5411654 -0.09553 0.9505458
H 0.32050818 -3.2257771 -3.0386398
H -1.3824322 -0.27450415 -3.8293245
H -1.5427294 -0.79075927 4.6652145
H 3.7567773 4.0029263 1.7968776
H 0.044090003 1.423179 3.9761007
H 0.1534868 -1.1950853 3.653091
H -0.89975387 1.943096 -3.1015337
H 1.2812936 -0.6498334 2.9250407
H 5.076592 1.9913099 3.9582179
H 4.726377 4.556863 -1.1755209
H -1.9337485 2.128779 4.186375
H -4.853161 -0.68338513 2.3855762
H -5.8106155 -0.124919266 -0.69134235
H 0.3687827 -2.9541042 -3.3322396
H -4.059513 -2.8806977 -0.23528486
H 0.33144012 -1.0933051 3.6578858
H -1.5101383 -3.648999 -1.8790512
H 6.620699 -2.5251894 0.29377976
H -3.2257895 2.8343792 3.0151038
H 5.9288907 -2.771057 1.1573093
H 1.1812581 2.8580065 3.8108535
H -4.892885 -1.9471747 -0.6171062
H 6.616536 2.5416903 0.32731473
H 6.293169 -3.2390187 0.01098155
H 2.0328867 -1.1923093 2.9873657
H 3.9771008 -4.8719788 1.7693663
H -2.100543 -4.617884 0.4086148
H 0.7503531 -3.4956443 2.7913392
H -2.8255053 1.9945229 -3.7870767
H -3.0246062 -3.9446945 -1.0564489
H -1.124044 1.7752467 3.6562533
H 6.831647 2.3079898 2.283097
H 0.96804905 3.9619136 3.2375073
H -5.470691 -1.6160403 -1.6399767
H 3.8098893 -1.1282574 -2.6827898
H 6.306455 0.3576906 -2.2150228
H 3.4570327 2.7993708 4.3340483
H 0.7785305 -0.95148534 -4.2764177
H 1.4306645 0.44159588 3.1865618
H -2.1103594 -4.7960253 0.6122946
H 5.6530995 -1.4596899 -2.3477418
H 1.5259606 5.9375935 0.1769086
H -0.48905727 -1.8145041 3.1584048
H 6.3732004 1.0557427 -2.6730838
H -0.40936536 1.2073164 -3.8110619
H -1.0294721 2.3733268 3.7074807
H 3.6742318 3.2255502 3.5917556
H 2.2415977 -0.12697726 -2.9760447
H 6.47204 2.4669428 1.3735284
H 6.1726646 -0.011909376 -2.3233626
H -1.7360307 3.9928465 2.78644
H 5.754209 -1.707337 2.094428
H 1.0731335 -3.0038188 2.605311
H 0.04851237 2.706699 2.8538275
H -3.1455154 2.6799629 -3.0350451
H 3.0712934 -1.4068972 3.988358
H -3.6511407 1.9321196 2.7076478
H 7.022476 1.9973706 1.2996986
H 6.7611647 3.0986226 -0.4142366
H -6.2903986 -0.47364032 -0.56644195
H 4.191137 0.19678998 -3.5910664
H 4.4629564 -3.2007253 -1.736717
H -3.7794304 -4.2181053 0.84703624
H -3.5763679 1.413382 -1.5306165
H 1.3917315 1.2873536 3.3423452
H 2.0108488 -1.1100445 -3.01705
H 2.5756521 4.2172737 -2.5341132
H 3.4617674 3.7132735 2.849843
H 5.765353 0.08217062 3.625537
H 1.8006229 -3.7900586 -2.384644
H 3.1649492 -2.4374452 -3.6312547
H 6.489067 -1.6732587 -0.037879415
H 0.26685512 -0.3270091 -3.1943426
H -1.1981789 -1.361978 -4.712838
H -3.5429752 1.6208806 -2.4537437
H 4.1878295 -2.3724852 -2.6863437
H 2.2436438 4.1469426 -1.475755
H 5.2313685 4.1872625 -1.722524
H -0.18080153 -4.1206045 -3.4025416
H 5.9257627 -2.3934898 -0.771302
H 4.263526 -1.9136693 -2.2079186
H 4.6946793 -1.3588346 2.8672554
H 5.330613 -2.7060971 2.3504832
H -4.553417 -1.5637051 3.111259
H 0.2072458 -2.1347783 -4.1416206
H -5.4517436 1.9186796 -0.0039511174
H 1.4446241 -1.5036453 -4.319087
H 1.4951069 4.7615933 -2.2985952
H 1.3373926 5.573151 -0.6899837
H 6.589137 -0.5436171 -0.85674703
H 2.9576516 4.6137705 1.7944813
H 3.8820024 -4.4755654 -0.8687577
H 5.915587 -0.28742936 3.5424228
H 0.904389 0.88417065 3.4139752
H 2.6437137 3.422751 -3.5942328
H 5.818469 2.7903306 1.8054855
H 0.3131063 0.014606714 3.0251873
H -3.265822 -1.0018792 4.4638486
H 3.0242496 3.3907132 -2.7072997
H 6.678953 0.7900907 2.212326
H -5.889022 -1.1590804 -1.287013
H -4.4309683 1.2798407 -2.0737128
H 3.1558812 -1.0617386 -3.064542
H -0.36870465 -0.38001463 3.3578515
H -0.8167566 -1.7957009 3.837004
H 3.5357547 -1.5442454 -3.4422126
H -4.7230763 -0.7504581 -1.7635825
H 3.2861934 4.3623495 -1.3916212
H 4.0896044 -3.363817 3.0638776
H 5.6603327 -0.8796172 -2.1714125
H 4.78924 3.0247025 -3.244064
H 1.030282 -0.19799927 3.332287
H 2.828381 5.097594 -1.6397493
H 0.12438651 4.9683514 -3.192588
H 4.2609477 -2.2563891 3.025626
H 1.3087147 0.643803 -3.2193816
H -4.479755 -3.3229203 -0.54158866
H 6.1615224 3.7840629 -1.0014842
H 3.5326529 -0.7017493 3.9869428
H -4.248087 -0.73714507 3.3504176
H 7.480541 -0.16049005 -0.43065947
H -3.37042 2.464779 3.3729796
H 4.9762144 -1.0970345 2.728222
H -3.7508729 2.6649854 0.10567702
H -3.9488566 -0.71767926 -2.9111838
H 6.523019 0.82726276 -2.4404204
H 0.40696776 -0.14060356 3.8086648
H 1.3310518 -1.2043234 3.541369
H 4.2522235 -0.0062099844 4.3312593
H -3.6261168 0.15981905 4.1712303
H -1.2455882 4.7723665 -1.3063152
H -5.67064 -2.2678802 -0.66138095
H -2.0657752 -3.5434391 -2.0483963
H 3.555424 -4.6502185 -1.9372987
H -2.87207 2.182539 3.9242074
H 3.9596174 0.40343648 -3.0565796
H -3.6689494 -3.0758545 1.0531377
H 6.5060005 -2.05245 -0.18754795
H -1.8112597 4.9692063 -0.9259411
H 2.9362798 -2.8840451 -3.643699
H 4.5040655 2.7456105 4.1851416
H -2.8974845 3.0117269 -1.1281322
H -2.4764338 2.9378068 2.7158473
H 4.761579 -0.17673008 4.1761575
H -4.2485995 -0.6464369 -2.1869082
H -4.4722376 0.21357906 3.3632982
H 1.8875481 3.1317563 2.902838
H -5.0468135 -1.5005746 -0.81583947
H -2.6453087 -3.8844795 -1.5091056
H -0.9290096 -4.211258 -2.6655233
H 1.9589216 -5.026539 1.1362615
H 5.0414705 4.4896626 0.08827437
H 2.6040843 -2.5346842 -3.0610218
H 0.32783106 1.8244364 -3.883933
H 3.3109074 -4.3625245 -1.1083263
H -0.52337694 5.276366 1.7374957
H 4.936175 -2.6289701 -1.463285
H -4.60964 -3.3915448 1.0458236
H 4.169488 0.35329068 4.4533877
H -2.246248 4.6648464 -0.16183215
H 7.590889 0.28610998 -0.24339157
H -4.5317273 2.6041198 0.5087707
H 5.8771205 -1.0200346 -1.1463836
H -1.2978837 -4.812764 1.4061725
H -2.86288 -0.28548035 3.7284324
H 0.65096784 5.7091136 -0.45073333
